%nproc=8
%mem=1000mw
#p B3LYP/6-31G* em=gd3 opt(ts,calcfc,noeigentest) freq temp=300

Title

-1 1
 C                  0.29224845   -0.61653914    0.26656335
 H                  0.85095100   -1.42706095    0.00000000
 H                  0.85096941    0.08614725    0.87365150
 H                 -0.57570343   -0.41823776    0.00000000
 Cl                 1.08097340    0.41141337   -1.43703425
 Br                -0.84051379   -1.72822171    1.76102364






