%nproc=4
%mem=1000mw
#p B3LYP/6-31G* em=gd3 irc(calcfc,LQA,stepsize=10,maxpoint=20) 

Title

-1 1
6        0.773343000      0.000406000      0.000047000
1        0.768123000      0.076412000      1.071927000
1        0.768113000      0.892143000     -0.600117000
1        0.768232000     -0.965314000     -0.469776000
17       3.151635000     -0.000170000     -0.000069000
35      -1.729209000     -0.000080000     -0.000033000




