6
NSTEP:0 E:-3071.879077 T:539.4837
C    0.80780835   0.01298896  -0.02894976
H    0.80997866   0.77134688   0.76924367
H    0.48221074   0.29095742  -1.03898042
H    0.94831849  -1.02931662   0.18890317
Cl    3.18165186   0.11977426   0.04636027
Br   -1.72911187  -0.16320731   0.06561169
6
NSTEP:2 E:-3071.878267 T:510.7411
C    0.80311607   0.01368118  -0.03193947
H    0.83356267   0.76705515   0.75705127
H    0.45348466   0.28101826  -1.01812656
H    0.94992799  -1.02508095   0.18818580
Cl    3.18973463   0.12079938   0.04418757
Br   -1.72419952  -0.16109591   0.06295973
6
NSTEP:4 E:-3071.877150 T:471.5898
C    0.79830321   0.01466820  -0.03456330
H    0.85490437   0.75822764   0.74106495
H    0.43347871   0.27288114  -0.99840007
H    0.94917517  -1.02176687   0.18914616
Cl    3.19778529   0.12184990   0.04193125
Br   -1.71930671  -0.15899398   0.06033079
6
NSTEP:6 E:-3071.875807 T:424.9333
C    0.79347844   0.01552974  -0.03662731
H    0.87371066   0.74862606   0.72511536
H    0.42094624   0.26823644  -0.98606598
H    0.94633735  -1.01977443   0.19170919
Cl    3.20580779   0.12292375   0.03958763
Br   -1.71443561  -0.15690115   0.05772900
6
NSTEP:8 E:-3071.875035 T:398.2135
C    0.78870190   0.01582483  -0.03810814
H    0.88999870   0.74246297   0.71339670
H    0.41489324   0.26817601  -0.98556476
H    0.94164781  -1.01911907   0.19560326
Cl    3.21380568   0.12401841   0.03715537
Br   -1.70958745  -0.15481676   0.05515799
6
NSTEP:10 E:-3071.875385 T:410.2114
C    0.78392682   0.01529122  -0.03917772
H    0.90387769   0.74269848   0.70870719
H    0.41544195   0.27268840  -0.99748729
H    0.93530336  -1.01958216   0.20041913
Cl    3.22178238   0.12513059   0.03463538
Br   -1.70476213  -0.15273987   0.05262052
