6
NSTEP:0 E:-3071.879077 T:539.4837
C   -0.00459744   0.00043653  -0.00307320
H    0.02449593  -0.00107835  -0.00931395
H   -0.03337661  -0.01019064   0.01915533
H    0.00290097   0.00441663  -0.00151853
Cl    0.00810046   0.00101171  -0.00213296
Br    0.00492112   0.00211614  -0.00266182
6
NSTEP:2 E:-3071.878267 T:510.7411
C   -0.00476599   0.00088404  -0.00283801
H    0.02252085  -0.00694932  -0.01449058
H   -0.02423378  -0.00926156   0.02108924
H    0.00039168   0.00385180   0.00011749
Cl    0.00806619   0.00103806  -0.00221391
Br    0.00490289   0.00210665  -0.00264099
6
NSTEP:4 E:-3071.877150 T:471.5898
C   -0.00483128   0.00098257  -0.00235945
H    0.02008892  -0.00974793  -0.01650608
H   -0.01610472  -0.00657992   0.01675869
H   -0.00182748   0.00267672   0.00178429
Cl    0.00803612   0.00106246  -0.00229965
Br    0.00488218   0.00209731  -0.00261585
6
NSTEP:6 E:-3071.875807 T:424.9333
C   -0.00480216   0.00062691  -0.00176219
H    0.01753154  -0.00837371  -0.01431515
H   -0.00922410  -0.00242773   0.00676396
H   -0.00378999   0.00130696   0.00327286
Cl    0.00800977   0.00108462  -0.00238792
Br    0.00485971   0.00208851  -0.00258680
6
NSTEP:8 E:-3071.875035 T:398.2135
C   -0.00476289  -0.00010471  -0.00124424
H    0.01507787  -0.00318698  -0.00839715
H   -0.00285286   0.00230457  -0.00591264
H   -0.00554045   0.00006107   0.00441173
Cl    0.00798686   0.00110389  -0.00247637
Br    0.00483663   0.00208051  -0.00255452
6
NSTEP:10 E:-3071.875385 T:410.2114
C   -0.00482311  -0.00094832  -0.00096392
H    0.01264837   0.00372335  -0.00099298
H    0.00429446   0.00642523  -0.01703747
H   -0.00710089  -0.00091208   0.00510112
Cl    0.00796742   0.00111942  -0.00256291
Br    0.00481448   0.00207355  -0.00252002
