%nproc=8
# B3LYP/6-31G* em=gd3 nosymm force 

Title

-1 1
C     0.773343000000      0.000406000000      0.000047000000
H     0.768123000000      0.076412000000      1.071927000000
H     0.768113000000      0.892143000000     -0.600117000000
H     0.768232000000     -0.965314000000     -0.469776000000
Cl    3.151635000000     -0.000170000000     -0.000069000000
Br   -1.729209000000     -0.000080000000     -0.000033000000





