%nproc=24
%mem=2000mw
%chk=tmp.chk{% if pre %}{{ "\n%oldchk=old.chk" }}{%- endif %}
#p M062X/6-31G* nosymm force int=ultrafine {% if pre %}{{ "guess=read" }}{% endif %}

Temparary input file for step {{ nstep }}

0 1
{%- for l in data %}
  {{ l[0] }}   {{ l[1][0] }}  {{ l[1][1] }}  {{ l[1][2] }}
{%- endfor %}





